07_CYME/Commonwealth_ret_01311205.sxst_DSS/Master.dss
Clear

! Define the Circuit
New Circuit.COMMONWEALTH_RET_01311205 Bus1=COMMONWEALTH_RET_01311205
~ BasekV=12.47  pu=1.0337  angle=0.00
~ Z1=[ 0.0532 1.0104 ]
~ Z2=[ 0.0532 1.0104 ]
~ Z0=[ 0.0387 0.9408 ]

!New Circuit.MG2 Bus1=CKT_TIE4
!~ BasekV=12.47  pu=0.996  angle=0.00
!~ Z1=[ 0.1075 0.9858 ]
!~ Z2=[ 0.1075 0.9858 ]
!~ Z0=[ 0.0810 0.9180 ]

! Library Data
Redirect Libraries\WireData.dss
Redirect Libraries\LineSpacing.dss
Redirect Libraries\UGLineCodes.dss

! Loadshapes
Redirect Shapes.dss

! Circuit Element Data
Redirect Elements\Lines.dss
Redirect Elements\Loads.dss
Redirect Elements\Capacitors.dss
!Redirect Elements\Regulators.dss

! Circuit Control Settings
!Redirect Controls\FuseContrl.dss
!Redirect Controls\SwitContrl.dss
!Redirect Controls\ReclContrl.dss

! Set the voltage bases
Set voltagebases = [ 12.47 7.20 0.480 0.208 0.240 0.120 ]
CalcVoltageBases

! Define the bus coordinates
Buscoords BusCoords.dss

! Define an energy meter
New EnergyMeter.CircuitMeter LINE.259355408 terminal=1 option=R PhaseVoltageReport=yes
~ peakcurrent=[ 347.00   364.00   293.00 ]

!New EnergyMeter.CircuitMeter Line.CKT_TIE4_SW terminal=1 option=R PhaseVoltageReport=yes
!~ peakcurrent=[ 347.00   364.00   293.00 ]