07_CYME/Commonwealth_ret_01311205.sxst_DSS/Libraries/UGLineCodes.DSS
New LineCode.1/0-AL-TRXLPELCJ-15KV R1=0.697129 X1=0.169361 R0=1.764551 X0=0.751057 B1=12.660434 B0=0.000000 normamps=244 emergamps=262 Units=km
New LineCode.1/0-AL-TRXLPELCJ-25KV R1=0.697390 X1=0.180707 R0=1.680672 X0=0.637465 B1=9.817662 B0=0.000000 normamps=243 emergamps=278 Units=km
New LineCode.2-AL-HMWPECN-15KV R1=1.107507 X1=0.186256 R0=1.969330 X0=0.476728 B1=11.234388 B0=0.000000 normamps=207 emergamps=237 Units=km
New LineCode.1/0-AL-HMWPECN-15KV R1=0.703206 X1=0.170436 R0=1.291787 X0=0.253749 B1=12.660434 B0=0.000000 normamps=267 emergamps=305 Units=km
New LineCode.DEFAULT R1=0.400000 X1=1.400000 R0=0.400000 X0=1.400000 B1=0.000000 B0=0.000000 normamps=100 emergamps=100 Units=km
New LineCode.350-AL-XLPEDWJ-15KV R1=0.213497 X1=0.145823 R0=0.924861 X0=2.131303 B1=15.956807 B0=0.000000 normamps=387 emergamps=387 Units=km
