07_CYME/Commonwealth_ret_01311205.sxst_DSS/Elements/Lines.dss
New Line.258904331 Phases= 1 Bus1=258904328.2     Bus2=258904333.2     Length=37.90  units=m  Spacing=VERTICAL-1-PH-60-1PH wires=['2-ACSR-B-6X1' '1/0-ACSR-B-6X1']
New Line.263533113 Bus1=258904471.3     Bus2=263533115.3     LineCode=1/0-AL-TRXLPELCJ-15KV Phases= 1 Length=1.53   units=m enable=yes
New Line.258907701 Phases= 1 Bus1=258907698.3     Bus2=258907703.3     Length=103.00 units=m  Spacing=VERTICAL-1-PH-60-1PH wires=['6-CU-WP-7' '2-CU-WP-7']
New Line.263533041 Phases= 1 Bus1=258904147.1     Bus2=263533043.1     Length=1.52   units=m  Spacing=VERTICAL-1-PH-60-1PH wires=['2-ACSR-B-6X1' '1/0-ACSR-B-6X1']
New Line.699643894 Phases= 1 Bus1=699643891.2     Bus2=258904278.2     Length=15.64  units=m  Spacing=VERTICAL-1-PH-60-1PH wires=['2-ACSR-B-6X1' '1/0-ACSR-B-6X1']
New Line.263533208 Bus1=263533205.2     Bus2=260761308.2     LineCode=1/0-AL-HMWPECN-15KV Phases= 1 Length=80.10  units=m enable=yes
New Line.258908074 Phases= 1 Bus1=258908071.1     Bus2=258908076.1     Length=33.09  units=m  Spacing=VERTICAL-1-PH-60-1PH wires=['4-ACSR-B-6X1' '2-CU-B-7']
New Line.466941332 Phases= 3 Bus1=258896348.1.2.3 Bus2=466941334.1.2.3 Length=1.53   units=m  Spacing=8'-ARM-NON-CENTER-POST-3PH wires=['336-ACSR-WP-18X1' '336-ACSR-WP-18X1' '336-ACSR-WP-18X1' '336-ACSR-B-18X1']
New Line.699646165 Phases= 3 Bus1=258904478.1.2.3 Bus2=699646163.1.2.3 Length=35.89  units=m  Spacing=8'-ARM-NON-CENTER-POST-3PH wires=['1/0-ACSR-WP-6X1' '1/0-ACSR-WP-6X1' '1/0-ACSR-WP-6X1' '1/0-ACSR-B-6X1']
New Line.263532938 Bus1=263532935.3     Bus2=260761126.3     LineCode=1/0-AL-TRXLPELCJ-15KV Phases= 1 Length=52.10  units=m enable=yes
New Line.258904556 Phases= 1 Bus1=258904538.1     Bus2=258904558.1     Length=58.29  units=m  Spacing=VERTICAL-1-PH-60-1PH wires=['2-ACSR-B-6X1' '2-ACSR-B-6X1']
New Line.258896366 Phases= 3 Bus1=258896353.1.2.3 Bus2=258896368.1.2.3 Length=48.93  units=m  Spacing=8'-ARM-NON-CENTER-POST-3PH wires=['336-ACSR-WP-18X1' '336-ACSR-WP-18X1' '336-ACSR-WP-18X1' '336-ACSR-B-18X1']
New Line.470868502 Phases= 3 Bus1=258903863.1.2.3 Bus2=470868498.1.2.3 Length=40.88  units=m  Spacing=8'-ARM-NON-CENTER-POST-3PH wires=['336-AAC-B-19' '336-AAC-B-19' '336-AAC-B-19' '1/0-ACSR-B-6X1']
New Line.263530745 Phases= 3 Bus1=258896640.1.2.3 Bus2=263530747.1.2.3 Length=1.51   units=m  Spacing=8'-ARM-STANDARD-3PH wires=['2-ACSR-B-6X1' '2-ACSR-B-6X1' '2-ACSR-B-6X1' '2-ACSR-B-6X1']
New Line.258896388 Phases= 3 Bus1=258896385.1.2.3 Bus2=258896390.1.2.3 Length=2.90   units=m  Spacing=8'-ARM-NON-CENTER-POST-3PH wires=['336-ACSR-WP-18X1' '336-ACSR-WP-18X1' '336-ACSR-WP-18X1' '336-ACSR-B-18X1']
New Line.699624892 Phases= 1 Bus1=699624889.2     Bus2=258904201.2     Length=12.80  units=m  Spacing=VERTICAL-1-PH-60-1PH wires=['2-CU-B-7' '2-CU-B-7']
New Line.258904023 Phases= 1 Bus1=258904020.2     Bus2=258904025.2     Length=38.20  units=m  Spacing=VERTICAL-1-PH-60-1PH wires=['2-ACSR-B-6X1' '1/0-ACSR-B-6X1']
New Line.699625161 Phases= 1 Bus1=699625148.1     Bus2=699625159.1     Length=24.13  units=m  Spacing=VERTICAL-1-PH-60-1PH wires=['4-ACSR-B-6X1' '2-CU-B-7']
New Line.699603855 Phases= 3 Bus1=699603852.1.2.3 Bus2=258903838.1.2.3 Length=38.39  units=m  Spacing=8'-ARM-NON-CENTER-POST-3PH wires=['336-AAC-B-19' '336-AAC-B-19' '336-AAC-B-19' '1/0-ACSR-B-6X1']
New Line.258904676 Phases= 3 Bus1=258904673.1.2.3 Bus2=258904678.1.2.3 Length=50.06  units=m  Spacing=8'-ARM-NON-CENTER-POST-3PH wires=['1/0-ACSR-B-6X1' '1/0-ACSR-B-6X1' '1/0-ACSR-B-6X1' '1/0-ACSR-B-6X1']
New Line.263532933 Bus1=259562756.3     Bus2=263532935.3     LineCode=1/0-AL-TRXLPELCJ-15KV Phases= 1 Length=1.52   units=m enable=yes
New Line.275423519 Phases= 3 Bus1=258896493.1.2.3 Bus2=258908167.1.2.3 Length=71.27  units=m  Spacing=8'-ARM-STANDARD-3PH wires=['336-AAC-B-19' '336-AAC-B-19' '336-AAC-B-19' '1/0-ACSR-B-6X1']
New Line.261302049 Bus1=261302041.2     Bus2=261302051.2     LineCode=1/0-AL-TRXLPELCJ-15KV Phases= 1 Length=41.37  units=m enable=yes
New Line.258903891 Phases= 3 Bus1=258903878.1.2.3 Bus2=258903893.1.2.3 Length=38.24  units=m  Spacing=8'-ARM-NON-CENTER-POST-3PH wires=['336-AAC-B-19' '336-AAC-B-19' '336-AAC-B-19' '1/0-ACSR-B-6X1']
New Line.637684703 Phases= 1 Bus1=258907737.2     Bus2=637684705.2     Length=1.53   units=m  Spacing=VERTICAL-1-PH-60-1PH wires=['6-CU-B-S' '6-CU-B-S']
New Line.258908179 Phases= 3 Bus1=258896476.1.2.3 Bus2=258908181.1.2.3 Length=15.79  units=m  Spacing=8'-ARM-NON-CENTER-POST-3PH wires=['336-ACSR-WP-18X1' '336-ACSR-WP-18X1' '336-ACSR-WP-18X1' '336-ACSR-B-18X1']
New Line.258908308 Phases= 1 Bus1=258908305.2     Bus2=258908310.2     Length=74.58  units=m  Spacing=VERTICAL-1-PH-60-1PH wires=['4-CU-WP-7' '4-CU-WP-7']
New Line.258904048 Phases= 1 Bus1=258904045.2     Bus2=258904050.2     Length=79.50  units=m  Spacing=VERTICAL-1-PH-60-1PH wires=['2-ACSR-B-6X1' '1/0-ACSR-B-6X1']
New Line.258907842 Phases= 1 Bus1=258907829.1     Bus2=258907844.1     Length=27.48  units=m  Spacing=VERTICAL-1-PH-60-1PH wires=['4-CU-B-7' '2-CU-B-7']
New Line.258896287 Phases= 3 Bus1=258896288.1.2.3 Bus2=258896289.1.2.3 Length=82.22  units=m  Spacing=8'-ARM-NON-CENTER-POST-3PH wires=['336-ACSR-WP-18X1' '336-ACSR-WP-18X1' '336-ACSR-WP-18X1' '336-ACSR-B-18X1']
New Line.699624266 Phases= 1 Bus1=699624251.2     Bus2=699624264.2     Length=15.15  units=m  Spacing=VERTICAL-1-PH-60-1PH wires=['2-ACSR-B-6X1' '1/0-ACSR-B-6X1']
New Line.699624871 Phases= 3 Bus1=258903970.1.2.3 Bus2=699624869.1.2.3 Length=36.78  units=m  Spacing=8'-ARM-NON-CENTER-POST-3PH wires=['2-ACSR-B-6X1' '2-ACSR-B-6X1' '2-ACSR-B-6X1' '1/0-ACSR-B-6X1']
New Line.258896650 Phases= 3 Bus1=258896647.1.2.3 Bus2=258896652.1.2.3 Length=17.95  units=m  Spacing=8'-ARM-NON-CENTER-POST-3PH wires=['336-AAC-B-19' '336-AAC-B-19' '336-AAC-B-19' '1/0-ACSR-B-6X1']
New Line.699625108 Phases= 1 Bus1=699625105.1     Bus2=258904238.1     Length=79.59  units=m  Spacing=VERTICAL-1-PH-60-1PH wires=['4-ACSR-B-6X1' '2-CU-B-7']
New Line.258908206 Phases= 3 Bus1=258908203.1.2.3 Bus2=258908208.1.2.3 Length=50.65  units=m  Spacing=8'-ARM-NON-CENTER-POST-3PH wires=['4-CU-WP-7' '4-CU-WP-7' '4-CU-WP-7' '2-CU-WP-7']
New Line.258908042 Phases= 3 Bus1=258907955.1.2.3 Bus2=258908044.1.2.3 Length=17.53  units=m  Spacing=8'-ARM-NON-CENTER-POST-3PH wires=['2-ACSR-B-6X1' '2-ACSR-B-6X1' '2-ACSR-B-6X1' '2-ACSR-B-6X1']
New Line.258908228 Phases= 3 Bus1=258908215.1.2.3 Bus2=258908230.1.2.3 Length=6.86   units=m  Spacing=8'-ARM-NON-CENTER-POST-3PH wires=['4-CU-WP-7' '4-CU-WP-7' '4-CU-WP-7' '1/0-CU-WP-7']
New Line.258904409 Phases= 1 Bus1=258904401.1     Bus2=258904411.1     Length=27.49  units=m  Spacing=VERTICAL-1-PH-60-1PH wires=['2-ACSR-B-6X1' '1/0-ACSR-B-6X1']
New Line.260761251 Bus1=260761248.3     Bus2=260761253.3     LineCode=1/0-AL-TRXLPELCJ-15KV Phases= 1 Length=22.46  units=m enable=yes
New Line.258907943 Phases= 3 Bus1=258907935.1.2.3 Bus2=258907945.1.2.3 Length=169.30 units=m  Spacing=8'-ARM-NON-CENTER-POST-3PH wires=['4-ACSR-B-6X1' '4-ACSR-B-6X1' '4-ACSR-B-6X1' '2-CU-B-7']
New Line.263533010 Phases= 3 Bus1=263533007.1.2.3 Bus2=258904120.1.2.3 Length=15.63  units=m  Spacing=8'-ARM-STANDARD-3PH wires=['2-ACSR-B-6X1' '2-ACSR-B-6X1' '2-ACSR-B-6X1' '1/0-ACSR-B-6X1']
New Line.699645907 Phases= 1 Bus1=699645894.1     Bus2=699645905.1     Length=21.68  units=m  Spacing=VERTICAL-1-PH-60-1PH wires=['2-ACSR-B-6X1' '1/0-ACSR-B-6X1']
New Line.699603854 Phases= 3 Bus1=699603841.1.2.3 Bus2=699603852.1.2.3 Length=37.53  units=m  Spacing=8'-ARM-NON-CENTER-POST-3PH wires=['336-AAC-B-19' '336-AAC-B-19' '336-AAC-B-19' '1/0-ACSR-B-6X1']
New Line.258907676 Phases= 1 Bus1=258907673.2     Bus2=258907678.2     Length=41.68  units=m  Spacing=VERTICAL-1-PH-60-1PH wires=['2-ACSR-B-6X1' '1/0-ACSR-B-6X1']
New Line.258908248 Phases= 3 Bus1=258908245.1.2.3 Bus2=258908250.1.2.3 Length=66.29  units=m  Spacing=8'-ARM-NON-CENTER-POST-3PH wires=['6-CU-TBWP-7' '6-CU-TBWP-7' '6-CU-TBWP-7' '4-CU-TBWP-7']
New Line.260761221 Bus1=260761218.2     Bus2=260761223.2     LineCode=1/0-AL-TRXLPELCJ-15KV Phases= 1 Length=10.64  units=m enable=yes
New Line.259355403 Phases= 3 Bus1=259355404.1.2.3 Bus2=258896288.1.2.3 Length=91.05  units=m  Spacing=8'-ARM-STANDARD-3PH wires=['556-AAC-B-19' '556-AAC-B-19' '556-AAC-B-19' '556-AAC-B-19']
New Line.263532897 Phases= 1 Bus1=258903893.1     Bus2=263532899.1     Length=1.52   units=m  Spacing=VERTICAL-1-PH-60-1PH wires=['2-ACSR-B-6X1' '1/0-ACSR-B-6X1']
New Line.263533194 Bus1=258904693.2     Bus2=263533196.2     LineCode=1/0-AL-HMWPECN-15KV Phases= 1 Length=1.52   units=m enable=yes
New Line.258908313 Phases= 1 Bus1=258908310.2     Bus2=258908315.2     Length=30.82  units=m  Spacing=VERTICAL-1-PH-60-1PH wires=['4-CU-WP-7' '4-CU-WP-7']
New Line.699603843 Phases= 3 Bus1=258903826.1.2.3 Bus2=699603841.1.2.3 Length=31.30  units=m  Spacing=8'-ARM-NON-CENTER-POST-3PH wires=['336-AAC-B-19' '336-AAC-B-19' '336-AAC-B-19' '1/0-ACSR-B-6X1']
New Line.258903968 Phases= 3 Bus1=258903965.1.2.3 Bus2=258903970.1.2.3 Length=43.96  units=m  Spacing=8'-ARM-NON-CENTER-POST-3PH wires=['2-ACSR-B-6X1' '2-ACSR-B-6X1' '2-ACSR-B-6X1' '1/0-ACSR-B-6X1']
New Line.263533050 Bus1=258904206.2     Bus2=263533052.2     LineCode=2-AL-HMWPECN-15KV Phases= 1 Length=1.52   units=m enable=yes
New Line.258904444 Phases= 1 Bus1=258904441.1     Bus2=258904446.1     Length=54.05  units=m  Spacing=VERTICAL-1-PH-60-1PH wires=['2-ACSR-B-6X1' '1/0-ACSR-B-6X1']
New Line.699624373 Phases= 1 Bus1=258904105.2     Bus2=699624371.2     Length=52.66  units=m  Spacing=VERTICAL-1-PH-60-1PH wires=['2-ACSR-B-6X1' '1/0-ACSR-B-6X1']
New Line.699624738 Phases= 1 Bus1=699624735.3     Bus2=258904065.3     Length=46.55  units=m  Spacing=VERTICAL-1-PH-60-1PH wires=['2-ACSR-B-6X1' '1/0-ACSR-B-6X1']
New Line.258907671 Phases= 1 Bus1=258907668.2     Bus2=258907673.2     Length=58.83  units=m  Spacing=VERTICAL-1-PH-60-1PH wires=['2-ACSR-B-6X1' '1/0-ACSR-B-6X1']
New Line.263530709 Bus1=258896551.1.2.3 Bus2=263530711.1.2.3 LineCode=350-AL-XLPEDWJ-15KV Phases= 3 Length=1.52   units=m enable=yes
New Line.263681960 Phases= 1 Bus1=258896454.1     Bus2=263681962.1     Length=1.53   units=m  Spacing=VERTICAL-1-PH-60-1PH wires=['4-CU-WP-7' '4-CU-WP-7']
New Line.633960092 Phases= 3 Bus1=258896573.1.2.3 Bus2=633960094.1.2.3 Length=29.06  units=m  Spacing=8'-ARM-STANDARD-3PH wires=['1/0-ACSR-B-6X1' '1/0-ACSR-B-6X1' '1/0-ACSR-B-6X1' '1/0-ACSR-B-6X1']
New Line.260761186 Bus1=260761183.1     Bus2=260761188.1     LineCode=1/0-AL-TRXLPELCJ-15KV Phases= 1 Length=21.67  units=m enable=yes
New Line.258907760 Phases= 1 Bus1=258907752.2     Bus2=258907762.2     Length=72.91  units=m  Spacing=VERTICAL-1-PH-60-1PH wires=['4-ACSR-B-6X1' '1/0-ACSR-B-6X1']
New Line.264256742 Bus1=260761208.2     Bus2=264256740.2     LineCode=1/0-AL-TRXLPELCJ-15KV Phases= 1 Length=17.74  units=m enable=no
New Line.630011453 Phases= 1 Bus1=258904568.1     Bus2=630011445.1     Length=39.75  units=m  Spacing=VERTICAL-1-PH-60-1PH wires=['1/0-ACSR-WP-6X1' '1/0-ACSR-B-6X1']
New Line.263530691 Phases= 3 Bus1=258896529.1.2.3 Bus2=263530693.1.2.3 Length=1.52   units=m  Spacing=8'-ARM-STANDARD-3PH wires=['2-ACSR-B-6X1' '2-ACSR-B-6X1' '2-ACSR-B-6X1' '1/0-ACSR-B-6X1']
New Line.258904696 Phases= 3 Bus1=258904693.1.2.3 Bus2=258904698.1.2.3 Length=25.60  units=m  Spacing=8'-ARM-NON-CENTER-POST-3PH wires=['1/0-ACSR-B-6X1' '1/0-ACSR-B-6X1' '1/0-ACSR-B-6X1' '1/0-ACSR-B-6X1']
New Line.264495218 Phases= 3 Bus1=258896311.1.2.3 Bus2=264495220.1.2.3 Length=1.52   units=m  Spacing=8'-ARM-NON-CENTER-POST-3PH wires=['336-ACSR-WP-18X1' '336-ACSR-WP-18X1' '336-ACSR-WP-18X1' '336-ACSR-B-18X1']
New Line.258907975 Phases= 1 Bus1=258907972.2     Bus2=258907977.2     Length=34.45  units=m  Spacing=VERTICAL-1-PH-60-1PH wires=['4-ACSR-B-6X1' '2-CU-B-7']
New Line.258904179 Phases= 1 Bus1=258904176.1     Bus2=258904181.1     Length=43.36  units=m  Spacing=VERTICAL-1-PH-60-1PH wires=['2-ACSR-B-6X1' '1/0-ACSR-B-6X1']
New Line.258907792 Phases= 3 Bus1=258907787.1.2.3 Bus2=258907794.1.2.3 Length=36.91  units=m  Spacing=8'-ARM-NON-CENTER-POST-3PH wires=['6-CU-B-S' '6-CU-B-S' '6-CU-B-S' '2-CU-B-7']
New Line.263533055 Bus1=263533052.2     Bus2=260761163.2     LineCode=2-AL-HMWPECN-15KV Phases= 1 Length=29.44  units=m enable=yes
New Line.699624737 Phases= 1 Bus1=258904060.3     Bus2=699624735.3     Length=67.76  units=m  Spacing=VERTICAL-1-PH-60-1PH wires=['2-ACSR-B-6X1' '1/0-ACSR-B-6X1']
New Line.263532969 Bus1=258903935.1     Bus2=263532971.1     LineCode=1/0-AL-HMWPECN-15KV Phases= 1 Length=1.52   units=m enable=yes
New Line.258896319 Phases= 3 Bus1=258896316.1.2.3 Bus2=258896321.1.2.3 Length=126.80 units=m  Spacing=8'-ARM-NON-CENTER-POST-3PH wires=['336-ACSR-WP-18X1' '336-ACSR-WP-18X1' '336-ACSR-WP-18X1' '336-ACSR-B-18X1']
New Line.258904671 Phases= 3 Bus1=258904666.1.2.3 Bus2=258904673.1.2.3 Length=9.71   units=m  Spacing=8'-ARM-NON-CENTER-POST-3PH wires=['1/0-ACSR-B-6X1' '1/0-ACSR-B-6X1' '1/0-ACSR-B-6X1' '1/0-ACSR-B-6X1']
New Line.637684626 Phases= 1 Bus1=637684623.2     Bus2=258907839.2     Length=31.16  units=m  Spacing=VERTICAL-1-PH-60-1PH wires=['2-ACSR-B-6X1' '2-CU-B-7']
New Line.258908445 Phases= 3 Bus1=258908440.1.2.3 Bus2=258908447.1.2.3 Length=26.38  units=m  Spacing=8'-ARM-STANDARD-3PH wires=['1/0-ACSR-B-6X1' '1/0-ACSR-B-6X1' '1/0-ACSR-B-6X1' '1/0-ACSR-B-6X1']
New Line.260761206 Bus1=260761203.2     Bus2=260761208.2     LineCode=1/0-AL-TRXLPELCJ-15KV Phases= 1 Length=18.58  units=m enable=yes
New Line.258908450 Phases= 3 Bus1=258908447.1.2.3 Bus2=258908452.1.2.3 Length=24.84  units=m  Spacing=8'-ARM-STANDARD-3PH wires=['1/0-ACSR-B-6X1' '1/0-ACSR-B-6X1' '1/0-ACSR-B-6X1' '1/0-ACSR-B-6X1']
New Line.259381734 Phases= 3 Bus1=258908051.1.2.3 Bus2=258908055.1.2.3 Length=10.86  units=m  Spacing=8'-ARM-NON-CENTER-POST-3PH wires=['2-ACSR-B-6X1' '2-ACSR-B-6X1' '2-ACSR-B-6X1' '1/0-ACSR-B-6X1']
New Line.263532915 Bus1=258903915.1     Bus2=263532917.1     LineCode=1/0-AL-TRXLPELCJ-15KV Phases= 1 Length=1.53   units=m enable=yes
New Line.263533131 Bus1=258904488.1     Bus2=263533133.1     LineCode=1/0-AL-TRXLPELCJ-15KV Phases= 1 Length=1.53   units=m enable=yes
New Line.699625240 Phases= 1 Bus1=258904318.2     Bus2=699625238.2     Length=16.69  units=m  Spacing=VERTICAL-1-PH-60-1PH wires=['2-ACSR-B-6X1' '1/0-ACSR-B-6X1']
New Line.258904681 Phases= 1 Bus1=258904678.1     Bus2=258904683.1     Length=23.41  units=m  Spacing=VERTICAL-1-PH-60-1PH wires=['2-ACSR-B-6X1' '2-ACSR-B-6X1']
New Line.264331251 Bus1=261180496.2     Bus2=261245650.2     LineCode=1/0-AL-TRXLPELCJ-15KV Phases= 1 Length=54.39  units=m enable=no
New Line.699603825 Phases= 3 Bus1=258903821.1.2.3 Bus2=699603823.1.2.3 Length=25.58  units=m  Spacing=8'-ARM-NON-CENTER-POST-3PH wires=['336-AAC-B-19' '336-AAC-B-19' '336-AAC-B-19' '1/0-ACSR-B-6X1']
New Line.258903851 Phases= 3 Bus1=258903838.1.2.3 Bus2=258903853.1.2.3 Length=20.24  units=m  Spacing=8'-ARM-NON-CENTER-POST-3PH wires=['336-AAC-B-19' '336-AAC-B-19' '336-AAC-B-19' '1/0-ACSR-B-6X1']
New Line.263532960 Bus1=258903935.2     Bus2=263532962.2     LineCode=1/0-AL-HMWPECN-15KV Phases= 1 Length=1.52   units=m enable=yes
New Line.258907817 Phases= 2 Bus1=258907809.1.2   Bus2=258907819.1.2   Length=14.80  units=m  Spacing=8'-ARM-STANDARD-2PH wires=['4-CU-B-7' '4-CU-B-7' '4-CU-B-7']
New Line.699624651 Phases= 1 Bus1=258904065.3     Bus2=699624649.3     Length=12.54  units=m  Spacing=VERTICAL-1-PH-60-1PH wires=['2-ACSR-B-6X1' '1/0-ACSR-B-6X1']
New Line.258903943 Phases= 3 Bus1=258903940.1.2.3 Bus2=258903945.1.2.3 Length=44.53  units=m  Spacing=8'-ARM-NON-CENTER-POST-3PH wires=['336-AAC-B-19' '336-AAC-B-19' '336-AAC-B-19' '1/0-ACSR-B-6X1']
New Line.627235795 Phases= 3 Bus1=258896618.1.2.3 Bus2=627235797.1.2.3 Length=1.54   units=m  Spacing=8'-ARM-STANDARD-3PH wires=['336-AAC-B-19' '336-AAC-B-19' '336-AAC-B-19' '1/0-ACSR-B-6X1']
New Line.258907933 Phases= 3 Bus1=258907928.1.2.3 Bus2=258907935.1.2.3 Length=40.36  units=m  Spacing=8'-ARM-NON-CENTER-POST-3PH wires=['4-ACSR-B-6X1' '4-ACSR-B-6X1' '4-ACSR-B-6X1' '2-CU-B-7']
New Line.264308703 Bus1=260761081.1     Bus2=260761086.1     LineCode=1/0-AL-HMWPECN-15KV Phases= 1 Length=51.20  units=m enable=no
New Line.258904145 Phases= 3 Bus1=258904142.1.2.3 Bus2=258904147.1.2.3 Length=71.06  units=m  Spacing=8'-ARM-STANDARD-3PH wires=['2-ACSR-B-6X1' '2-ACSR-B-6X1' '2-ACSR-B-6X1' '1/0-ACSR-B-6X1']
New Line.258908064 Phases= 1 Bus1=258908061.2     Bus2=258908066.2     Length=73.65  units=m  Spacing=VERTICAL-1-PH-60-1PH wires=['2-ACSR-B-6X1' '1/0-ACSR-B-6X1']
New Line.699625515 Phases= 3 Bus1=699625512.1.2.3 Bus2=258904391.1.2.3 Length=29.28  units=m  Spacing=8'-ARM-NON-CENTER-POST-3PH wires=['2-ACSR-B-6X1' '2-ACSR-B-6X1' '2-ACSR-B-6X1' '2-ACSR-B-6X1']
New Line.258908408 Phases= 1 Bus1=258908405.1     Bus2=258908410.1     Length=68.65  units=m  Spacing=VERTICAL-1-PH-60-1PH wires=['1/0-ACSR-WP-6X1' '4-CU-WP-7']
New Line.263532924 Phases= 3 Bus1=258903915.1.2.3 Bus2=263532926.1.2.3 Length=1.52   units=m  Spacing=8'-ARM-NON-CENTER-POST-3PH wires=['2-CU-B-7' '4-CU-B-7' '4-CU-B-7' '2-CU-B-7']
New Line.633960128 Bus1=633960094.1.2.3 Bus2=633960130.1.2.3 LineCode=1/0-AL-TRXLPELCJ-25KV Phases= 3 Length=1.54   units=m enable=yes
New Line.699624206 Phases= 1 Bus1=699624203.2     Bus2=258904075.2     Length=52.38  units=m  Spacing=VERTICAL-1-PH-60-1PH wires=['2-ACSR-B-6X1' '1/0-ACSR-B-6X1']
New Line.263530741 Phases= 1 Bus1=263530738.3     Bus2=258907891.3     Length=62.22  units=m  Spacing=NEUTRAL-ON-ARM-1PH wires=['6-CU-B-S' '6-CU-B-S']
New Line.258896496 Phases= 3 Bus1=258896486.1.2.3 Bus2=258896498.1.2.3 Length=12.46  units=m  Spacing=8'-ARM-STANDARD-3PH wires=['336-ACSR-B-18X1' '336-ACSR-B-18X1' '336-ACSR-B-18X1' '336-ACSR-B-18X1']
New Line.264495214 Phases= 3 Bus1=264495211.1.2.3 Bus2=258896311.1.2.3 Length=74.28  units=m  Spacing=8'-ARM-NON-CENTER-POST-3PH wires=['336-ACSR-B-18X1' '336-ACSR-B-18X1' '336-ACSR-B-18X1' '336-ACSR-B-18X1']
New Line.258904326 Phases= 1 Bus1=258904323.2     Bus2=258904328.2     Length=33.35  units=m  Spacing=VERTICAL-1-PH-60-1PH wires=['2-ACSR-B-6X1' '1/0-ACSR-B-6X1']
New Line.258907874 Phases= 1 Bus1=258907869.2     Bus2=258907876.2     Length=9.40   units=m  Spacing=VERTICAL-1-PH-60-1PH wires=['2-ACSR-B-6X1' '2-ACSR-B-6X1']
New Line.258904730 Phases= 2 Bus1=258904725.1.2   Bus2=258904732.1.2   Length=31.65  units=m  Spacing=8'-ARM-STANDARD-2PH wires=['2-ACSR-B-6X1' '2-ACSR-B-6X1' '1/0-ACSR-B-6X1']
New Line.258896304 Phases= 3 Bus1=258896301.1.2.3 Bus2=258896306.1.2.3 Length=82.58  units=m  Spacing=8'-ARM-NON-CENTER-POST-3PH wires=['336-ACSR-WP-18X1' '336-ACSR-WP-18X1' '336-ACSR-WP-18X1' '336-ACSR-B-18X1']
New Line.258907735 Phases= 1 Bus1=258907732.2     Bus2=258907737.2     Length=33.56  units=m  Spacing=VERTICAL-1-PH-60-1PH wires=['6-CU-B-S' '6-CU-B-S']
New Line.258904691 Phases= 3 Bus1=258904688.1.2.3 Bus2=258904693.1.2.3 Length=21.52  units=m  Spacing=8'-ARM-NON-CENTER-POST-3PH wires=['1/0-ACSR-B-6X1' '1/0-ACSR-B-6X1' '1/0-ACSR-B-6X1' '1/0-ACSR-B-6X1']
New Line.699646024 Phases= 1 Bus1=699646021.1     Bus2=258904568.1     Length=37.37  units=m  Spacing=VERTICAL-1-PH-60-1PH wires=['1/0-ACSR-WP-6X1' '1/0-ACSR-B-6X1']
New Line.263532888 Phases= 1 Bus1=258903878.1     Bus2=263532890.1     Length=1.53   units=m  Spacing=VERTICAL-1-PH-60-1PH wires=['1/0-ACSR-WP-6X1' '1/0-ACSR-B-6X1']
New Line.260761226 Bus1=260761223.2     Bus2=264256740.2     LineCode=1/0-AL-TRXLPELCJ-15KV Phases= 1 Length=25.61  units=m enable=yes
New Line.263533095 Bus1=258904379.1.2.3 Bus2=263533097.1.2.3 LineCode=2-AL-HMWPECN-15KV Phases= 3 Length=1.52   units=m enable=yes
New Line.716733239 Phases= 3 Bus1=258904583.1.2.3 Bus2=258904627.1.2.3 Length=45.52  units=m  Spacing=8'-ARM-NON-CENTER-POST-3PH wires=['2-ACSR-B-6X1' '2-ACSR-B-6X1' '2-ACSR-B-6X1' '1/0-ACSR-B-6X1']
New Line.258904593 Phases= 3 Bus1=258904583.1.2.3 Bus2=258904595.1.2.3 Length=85.98  units=m  Spacing=8'-ARM-NON-CENTER-POST-3PH wires=['2-ACSR-B-6X1' '2-ACSR-B-6X1' '2-ACSR-B-6X1' '1/0-ACSR-B-6X1']
New Line.258903783 Phases= 3 Bus1=258903780.1.2.3 Bus2=258903785.1.2.3 Length=33.71  units=m  Spacing=8'-ARM-NON-CENTER-POST-3PH wires=['336-AAC-B-19' '336-AAC-B-19' '336-AAC-B-19' '1/0-ACSR-B-6X1']
New Line.258903903 Phases= 3 Bus1=258903900.1.2.3 Bus2=258903905.1.2.3 Length=56.92  units=m  Spacing=8'-ARM-NON-CENTER-POST-3PH wires=['336-AAC-B-19' '336-AAC-B-19' '336-AAC-B-19' '1/0-ACSR-B-6X1']
New Line.264381919 Phases= 3 Bus1=258903806.1.2.3 Bus2=264381917.1.2.3 Length=1.52   units=m  Spacing=8'-ARM-NON-CENTER-POST-3PH wires=['336-AAC-B-19' '336-AAC-B-19' '336-AAC-B-19' '1/0-ACSR-B-6X1']
New Line.258896341 Phases= 3 Bus1=258896338.1.2.3 Bus2=258896343.1.2.3 Length=64.79  units=m  Spacing=8'-ARM-NON-CENTER-POST-3PH wires=['336-ACSR-WP-18X1' '336-ACSR-WP-18X1' '336-ACSR-WP-18X1' '336-ACSR-B-18X1']
New Line.258904003 Phases= 3 Bus1=258904000.1.2.3 Bus2=258904005.1.2.3 Length=37.97  units=m  Spacing=8'-ARM-NON-CENTER-POST-3PH wires=['2-ACSR-B-6X1' '2-ACSR-B-6X1' '2-ACSR-B-6X1' '1/0-ACSR-B-6X1']
New Line.258908109 Phases= 1 Bus1=258908106.1     Bus2=258908111.1     Length=95.47  units=m  Spacing=VERTICAL-1-PH-60-1PH wires=['4-ACSR-B-6X1' '2-CU-B-7']
New Line.263533185 Bus1=258904666.1     Bus2=263533187.1     LineCode=1/0-AL-HMWPECN-15KV Phases= 1 Length=1.52   units=m enable=yes
New Line.258904541 Phases= 1 Bus1=258904533.1     Bus2=258904543.1     Length=36.28  units=m  Spacing=VERTICAL-1-PH-60-1PH wires=['2-ACSR-B-6X1' '1/0-ACSR-B-6X1']
New Line.263530700 Bus1=258896544.1     Bus2=263530702.1     LineCode=1/0-AL-HMWPECN-15KV Phases= 1 Length=1.53   units=m enable=yes
New Line.258908131 Phases= 3 Bus1=258908126.1.2.3 Bus2=258908133.1.2.3 Length=53.12  units=m  Spacing=8'-ARM-NON-CENTER-POST-3PH wires=['4-ACSR-B-6X1' '4-ACSR-B-6X1' '4-ACSR-B-6X1' '2-CU-B-7']
New Line.699646219 Phases= 3 Bus1=699646216.1.2.3 Bus2=258904513.1.2.3 Length=32.89  units=m  Spacing=8'-ARM-NON-CENTER-POST-3PH wires=['1/0-ACSR-WP-6X1' '1/0-ACSR-WP-6X1' '1/0-ACSR-WP-6X1' '1/0-ACSR-B-6X1']
New Line.258904286 Phases= 1 Bus1=258904283.2     Bus2=258904288.2     Length=71.18  units=m  Spacing=VERTICAL-1-PH-60-1PH wires=['2-ACSR-B-6X1' '1/0-ACSR-B-6X1']
New Line.258908328 Phases= 1 Bus1=258908325.2     Bus2=258908330.2     Length=37.94  units=m  Spacing=VERTICAL-1-PH-60-1PH wires=['4-CU-WP-7' '1/0-ACSR-B-6X1']
New Line.263533032 Phases= 1 Bus1=258904005.3     Bus2=263533034.3     Length=1.52   units=m  Spacing=VERTICAL-1-PH-60-1PH wires=['2-ACSR-B-6X1' '1/0-ACSR-B-6X1']
New Line.259365161 Phases= 1 Bus1=258907713.3     Bus2=259365163.3     Length=21.52  units=m  Spacing=VERTICAL-1-PH-104-1PH wires=['2-ACSR-B-6X1' '2-ACSR-B-6X1']
New Line.258903933 Phases= 3 Bus1=258903930.1.2.3 Bus2=258903935.1.2.3 Length=17.13  units=m  Spacing=8'-ARM-NON-CENTER-POST-3PH wires=['336-AAC-B-19' '336-AAC-B-19' '336-AAC-B-19' '1/0-ACSR-B-6X1']
New Line.699603884 Phases= 3 Bus1=258903858.1.2.3 Bus2=699603882.1.2.3 Length=27.25  units=m  Spacing=8'-ARM-NON-CENTER-POST-3PH wires=['336-AAC-B-19' '336-AAC-B-19' '336-AAC-B-19' '1/0-ACSR-B-6X1']
New Line.258904271 Phases= 1 Bus1=258904268.2     Bus2=258904273.2     Length=23.76  units=m  Spacing=VERTICAL-1-PH-60-1PH wires=['2-ACSR-B-6X1' '1/0-ACSR-B-6X1']
New Line.263534365 Phases= 1 Bus1=258908198.2     Bus2=263534367.2     Length=1.53   units=m  Spacing=VERTICAL-1-PH-60-1PH wires=['4-CU-WP-7' '4-CU-WP-7']
New Line.699622922 Phases= 3 Bus1=699622919.1.2.3 Bus2=258903910.1.2.3 Length=19.23  units=m  Spacing=8'-ARM-NON-CENTER-POST-3PH wires=['336-AAC-B-19' '336-AAC-B-19' '336-AAC-B-19' '1/0-ACSR-B-6X1']
New Line.258896383 Phases= 3 Bus1=258896378.1.2.3 Bus2=258896385.1.2.3 Length=30.95  units=m  Spacing=8'-ARM-NON-CENTER-POST-3PH wires=['336-ACSR-WP-18X1' '336-ACSR-WP-18X1' '336-ACSR-WP-18X1' '336-ACSR-B-18X1']
New Line.263532852 Phases= 3 Bus1=258903807.1.2.3 Bus2=263532854.1.2.3 Length=1.53   units=m  Spacing=8'-ARM-NON-CENTER-POST-3PH wires=['2-ACSR-B-6X1' '2-ACSR-B-6X1' '2-ACSR-B-6X1' '1/0-ACSR-B-6X1']
New Line.260761104 Bus1=260761101.2     Bus2=260761106.2     LineCode=1/0-AL-HMWPECN-15KV Phases= 1 Length=63.25  units=m enable=yes
New Line.699645147 Phases= 3 Bus1=258904595.1.2.3 Bus2=699645145.1.2.3 Length=20.61  units=m  Spacing=8'-ARM-NON-CENTER-POST-3PH wires=['2-ACSR-B-6X1' '2-ACSR-B-6X1' '2-ACSR-B-6X1' '1/0-ACSR-B-6X1']
New Line.258908393 Phases= 1 Bus1=258908390.1     Bus2=258908395.1     Length=28.63  units=m  Spacing=VERTICAL-1-PH-60-1PH wires=['4-CU-WP-7' '1/0-ACSR-B-6X1']
New Line.699625381 Phases= 1 Bus1=258904421.1     Bus2=699625379.1     Length=66.09  units=m  Spacing=VERTICAL-1-PH-60-1PH wires=['2-ACSR-B-6X1' '1/0-ACSR-B-6X1']
New Line.258907894 Phases= 1 Bus1=258907891.3     Bus2=258907896.3     Length=44.82  units=m  Spacing=NEUTRAL-ON-ARM-1PH wires=['6-CU-B-S' '6-CU-B-S']
New Line.258908418 Phases= 1 Bus1=258908415.3     Bus2=258908420.3     Length=64.14  units=m  Spacing=VERTICAL-1-PH-60-1PH wires=['4-CU-WP-7' '2-CU-WP-7']
New Line.699624857 Phases= 3 Bus1=699624854.1.2.3 Bus2=258903975.1.2.3 Length=25.35  units=m  Spacing=8'-ARM-NON-CENTER-POST-3PH wires=['2-ACSR-B-6X1' '2-ACSR-B-6X1' '2-ACSR-B-6X1' '1/0-ACSR-B-6X1']
New Line.258896520 Phases= 3 Bus1=258896517.1.2.3 Bus2=258896522.1.2.3 Length=56.39  units=m  Spacing=8'-ARM-STANDARD-3PH wires=['336-AAC-B-19' '336-AAC-B-19' '336-AAC-B-19' '1/0-ACSR-B-6X1']
New Line.258904088 Phases= 1 Bus1=258904085.2     Bus2=258904090.2     Length=33.76  units=m  Spacing=VERTICAL-1-PH-60-1PH wires=['2-ACSR-B-6X1' '1/0-ACSR-B-6X1']
New Line.263682370 Phases= 3 Bus1=263682367.1.2.3 Bus2=258903800.1.2.3 Length=69.13  units=m  Spacing=8'-ARM-NON-CENTER-POST-3PH wires=['6-CU-B-S' '6-CU-B-S' '6-CU-B-S' '1/0-ACSR-B-6X1']
New Line.258904414 Phases= 1 Bus1=258904411.1     Bus2=258904416.1     Length=29.06  units=m  Spacing=VERTICAL-1-PH-60-1PH wires=['2-ACSR-B-6X1' '1/0-ACSR-B-6X1']
New Line.258908213 Phases= 3 Bus1=258908208.1.2.3 Bus2=258908215.1.2.3 Length=31.71  units=m  Spacing=8'-ARM-NON-CENTER-POST-3PH wires=['4-CU-WP-7' '4-CU-WP-7' '4-CU-WP-7' '1/0-CU-WP-7']
New Line.260761119 Bus1=260761116.3     Bus2=260761121.3     LineCode=1/0-AL-TRXLPELCJ-15KV Phases= 1 Length=112.00 units=m enable=yes
New Line.258896356 Phases= 3 Bus1=258896353.1.2.3 Bus2=258896358.1.2.3 Length=18.73  units=m  Spacing=8'-ARM-NON-CENTER-POST-3PH wires=['336-ACSR-WP-18X1' '336-ACSR-WP-18X1' '336-ACSR-WP-18X1' '336-ACSR-B-18X1']
New Line.627235690 Phases= 3 Bus1=627235688.1.2.3 Bus2=258896623.1.2.3 Length=39.96  units=m  Spacing=8'-ARM-STANDARD-3PH wires=['336-AAC-B-19' '336-AAC-B-19' '336-AAC-B-19' '1/0-ACSR-B-6X1']
New Line.617632317 Bus1=258904498.2     Bus2=617632319.2     LineCode=1/0-AL-TRXLPELCJ-15KV Phases= 1 Length=1.54   units=m enable=yes
New Line.258908084 Phases= 1 Bus1=258908076.1     Bus2=258908086.1     Length=35.45  units=m  Spacing=VERTICAL-1-PH-60-1PH wires=['4-ACSR-B-6X1' '2-CU-B-7']
New Line.716733252 Phases= 3 Bus1=716733211.1.2.3 Bus2=716733250.1.2.3 Length=16.77  units=m  Spacing=8'-ARM-NON-CENTER-POST-3PH wires=['336-AAC-B-19' '336-AAC-B-19' '336-AAC-B-19' '1/0-ACSR-B-6X1']
New Line.258908089 Phases= 1 Bus1=258908086.1     Bus2=258908091.1     Length=71.65  units=m  Spacing=VERTICAL-1-PH-60-1PH wires=['4-ACSR-B-6X1' '2-CU-B-7']
New Line.258904336 Phases= 1 Bus1=258904333.2     Bus2=258904338.2     Length=40.63  units=m  Spacing=VERTICAL-1-PH-60-1PH wires=['2-ACSR-B-6X1' '1/0-ACSR-B-6X1']
New Line.274925127 Phases= 3 Bus1=274925125.1.2.3 Bus2=258896603.1.2.3 Length=29.66  units=m  Spacing=8'-ARM-NON-CENTER-POST-3PH wires=['2-ACSR-B-6X1' '2-ACSR-B-6X1' '2-ACSR-B-6X1' '1/0-ACSR-B-6X1']
New Line.260761201 Bus1=260761198.2     Bus2=260761203.2     LineCode=1/0-AL-TRXLPELCJ-15KV Phases= 1 Length=63.40  units=m enable=yes
New Line.263532843 Phases= 1 Bus1=258903785.3     Bus2=263532845.3     Length=1.52   units=m  Spacing=VERTICAL-1-PH-60-1PH wires=['6-CU-WP-7' '6-CU-WP-7']
New Line.617632356 Bus1=617632353.2     Bus2=260761218.2     LineCode=1/0-AL-TRXLPELCJ-15KV Phases= 1 Length=19.43  units=m enable=yes
New Line.258904377 Phases= 3 Bus1=258904374.1.2.3 Bus2=258904379.1.2.3 Length=24.84  units=m  Spacing=8'-ARM-NON-CENTER-POST-3PH wires=['2-ACSR-B-6X1' '2-ACSR-B-6X1' '2-ACSR-B-6X1' '1/0-ACSR-B-6X1']
New Line.258904501 Phases= 3 Bus1=258904498.1.2.3 Bus2=258904503.1.2.3 Length=61.17  units=m  Spacing=8'-ARM-NON-CENTER-POST-3PH wires=['1/0-ACSR-WP-6X1' '1/0-ACSR-WP-6X1' '1/0-ACSR-WP-6X1' '1/0-ACSR-B-6X1']
New Line.263533203 Bus1=258904693.2     Bus2=263533205.2     LineCode=1/0-AL-HMWPECN-15KV Phases= 1 Length=1.52   units=m enable=yes
New Line.258907711 Phases= 1 Bus1=258907708.3     Bus2=258907713.3     Length=56.18  units=m  Spacing=VERTICAL-1-PH-60-1PH wires=['6-CU-B-S' '6-CU-B-S']
New Line.258908099 Phases= 1 Bus1=258908096.1     Bus2=258908101.1     Length=23.45  units=m  Spacing=VERTICAL-1-PH-60-1PH wires=['4-ACSR-B-6X1' '2-CU-B-7']
New Line.466941356 Phases= 3 Bus1=466941352.1.2.3 Bus2=258896469.1.2.3 Length=24.52  units=m  Spacing=8'-ARM-NON-CENTER-POST-3PH wires=['336-ACSR-WP-18X1' '336-ACSR-WP-18X1' '336-ACSR-WP-18X1' '336-ACSR-B-18X1']
New Line.261245653 Bus1=261245654.2     Bus2=261245655.2     LineCode=1/0-AL-TRXLPELCJ-15KV Phases= 1 Length=13.84  units=m enable=yes
New Line.258903898 Phases= 3 Bus1=258903893.1.2.3 Bus2=258903900.1.2.3 Length=50.07  units=m  Spacing=8'-ARM-NON-CENTER-POST-3PH wires=['336-AAC-B-19' '336-AAC-B-19' '336-AAC-B-19' '1/0-ACSR-B-6X1']
New Line.258904735 Phases= 2 Bus1=258904732.1.2   Bus2=258904737.1.2   Length=35.27  units=m  Spacing=8'-ARM-STANDARD-2PH wires=['2-ACSR-B-6X1' '2-ACSR-B-6X1' '1/0-ACSR-B-6X1']
New Line.264495349 Phases= 3 Bus1=264495346.1.2.3 Bus2=258903780.1.2.3 Length=81.04  units=m  Spacing=8'-ARM-NON-CENTER-POST-3PH wires=['336-AAC-B-19' '336-AAC-B-19' '336-AAC-B-19' '1/0-ACSR-B-6X1']
New Line.258908298 Phases= 1 Bus1=258908295.2     Bus2=258908300.2     Length=69.83  units=m  Spacing=VERTICAL-1-PH-60-1PH wires=['2-ACSR-B-6X1' '2-CU-WP-7']
New Line.699625175 Phases= 1 Bus1=699625172.1     Bus2=258904253.1     Length=42.62  units=m  Spacing=VERTICAL-1-PH-60-1PH wires=['4-ACSR-B-6X1' '2-CU-B-7']
New Line.258903988 Phases= 3 Bus1=258903985.1.2.3 Bus2=258903990.1.2.3 Length=31.91  units=m  Spacing=8'-ARM-NON-CENTER-POST-3PH wires=['2-ACSR-B-6X1' '2-ACSR-B-6X1' '2-ACSR-B-6X1' '1/0-ACSR-B-6X1']
New Line.263530727 Phases= 3 Bus1=258896623.1.2.3 Bus2=263530729.1.2.3 Length=1.52   units=m  Spacing=8'-ARM-STANDARD-3PH wires=['2-ACSR-B-6X1' '2-ACSR-B-6X1' '2-ACSR-B-6X1' '1/0-ACSR-B-6X1']
New Line.264003742 Phases= 1 Bus1=264003739.3     Bus2=259562756.3     Length=34.33  units=m  Spacing=VERTICAL-1-PH-104-1PH wires=['1/0-ACSR-B-6X1' '1/0-ACSR-B-6X1']
New Line.471790416 Phases= 3 Bus1=471790414.1.2.3 Bus2=258904610.1.2.3 Length=21.03  units=m  Spacing=8'-ARM-NON-CENTER-POST-3PH wires=['2-ACSR-B-6X1' '2-ACSR-B-6X1' '2-ACSR-B-6X1' '2-ACSR-B-6X1']
New Line.699624174 Phases= 1 Bus1=699624161.2     Bus2=699624172.2     Length=25.43  units=m  Spacing=VERTICAL-1-PH-60-1PH wires=['2-ACSR-B-6X1' '1/0-ACSR-B-6X1']
New Line.258907852 Phases= 1 Bus1=258907849.1     Bus2=258907854.1     Length=32.20  units=m  Spacing=VERTICAL-1-PH-60-1PH wires=['4-CU-B-7' '2-CU-B-7']
New Line.258904644 Phases= 1 Bus1=258904641.3     Bus2=258904646.3     Length=25.36  units=m  Spacing=VERTICAL-1-PH-60-1PH wires=['4-CU-B-7' '2-CU-B-7']
New Line.258904296 Phases= 1 Bus1=258904293.2     Bus2=258904298.2     Length=68.51  units=m  Spacing=VERTICAL-1-PH-60-1PH wires=['2-ACSR-B-6X1' '1/0-ACSR-B-6X1']
New Line.258903963 Phases= 3 Bus1=258903960.1.2.3 Bus2=258903965.1.2.3 Length=27.93  units=m  Spacing=8'-ARM-NON-CENTER-POST-3PH wires=['2-ACSR-B-6X1' '2-ACSR-B-6X1' '2-ACSR-B-6X1' '1/0-ACSR-B-6X1']
New Line.699624094 Phases= 1 Bus1=258904020.2     Bus2=699624092.2     Length=44.28  units=m  Spacing=VERTICAL-1-PH-60-1PH wires=['2-ACSR-B-6X1' '1/0-ACSR-B-6X1']
New Line.263857509 Bus1=259365163.3     Bus2=263857511.3     LineCode=1/0-AL-TRXLPELCJ-15KV Phases= 1 Length=1.52   units=m enable=yes
New Line.260762260 Bus1=260762257.1     Bus2=264281556.1     LineCode=1/0-AL-HMWPECN-15KV Phases= 1 Length=62.36  units=m enable=yes
New Line.699625107 Phases= 1 Bus1=263533070.1     Bus2=699625105.1     Length=35.21  units=m  Spacing=VERTICAL-1-PH-60-1PH wires=['4-ACSR-B-6X1' '2-CU-B-7']
New Line.258908223 Phases= 1 Bus1=258908215.1     Bus2=258908225.1     Length=35.87  units=m  Spacing=VERTICAL-1-PH-60-1PH wires=['2-ACSR-B-6X1' '4-ACSR-B-6X1']
New Line.699625382 Phases= 1 Bus1=699625379.1     Bus2=258904426.1     Length=52.48  units=m  Spacing=VERTICAL-1-PH-60-1PH wires=['2-ACSR-B-6X1' '1/0-ACSR-B-6X1']
New Line.699644087 Phases= 1 Bus1=258904313.2     Bus2=699644085.2     Length=46.82  units=m  Spacing=VERTICAL-1-PH-60-1PH wires=['2-ACSR-B-6X1' '1/0-ACSR-B-6X1']
New Line.258904140 Phases= 3 Bus1=258904137.1.2.3 Bus2=258904142.1.2.3 Length=30.08  units=m  Spacing=8'-ARM-STANDARD-3PH wires=['2-ACSR-B-6X1' '2-ACSR-B-6X1' '2-ACSR-B-6X1' '1/0-ACSR-B-6X1']
New Line.263534388 Phases= 1 Bus1=263534385.1     Bus2=258908350.1     Length=18.22  units=m  Spacing=VERTICAL-1-PH-60-1PH wires=['4-CU-WP-7' '4-CU-WP-7']
New Line.263533068 Phases= 1 Bus1=258904231.1     Bus2=263533070.1     Length=1.53   units=m  Spacing=VERTICAL-1-PH-60-1PH wires=['4-ACSR-B-6X1' '2-CU-B-7']
New Line.617632388 Phases= 3 Bus1=258904503.1.2.3 Bus2=617632386.1.2.3 Length=29.83  units=m  Spacing=8'-ARM-NON-CENTER-POST-3PH wires=['1/0-ACSR-WP-6X1' '1/0-ACSR-WP-6X1' '1/0-ACSR-WP-6X1' '1/0-ACSR-B-6X1']
New Line.260761271 Bus1=260761268.3     Bus2=260761258.3     LineCode=1/0-AL-TRXLPELCJ-15KV Phases= 1 Length=21.01  units=m enable=yes
New Line.258907812 Phases= 1 Bus1=258907804.1     Bus2=258907814.1     Length=68.66  units=m  Spacing=VERTICAL-1-PH-60-1PH wires=['6-CU-B-S' '2-CU-B-7']
New Line.699623036 Phases= 3 Bus1=699603805.1.2.3 Bus2=699623034.1.2.3 Length=22.20  units=m  Spacing=8'-ARM-NON-CENTER-POST-3PH wires=['1/0-ACSR-B-6X1' '1/0-ACSR-B-6X1' '1/0-ACSR-B-6X1' '1/0-ACSR-B-6X1']
New Line.699624817 Phases= 3 Bus1=699624814.1.2.3 Bus2=258903985.1.2.3 Length=33.86  units=m  Spacing=8'-ARM-NON-CENTER-POST-3PH wires=['2-ACSR-B-6X1' '2-ACSR-B-6X1' '2-ACSR-B-6X1' '1/0-ACSR-B-6X1']
New Line.263533167 Phases= 1 Bus1=258903838.3     Bus2=263533169.3     Length=1.52   units=m  Spacing=VERTICAL-1-PH-60-1PH wires=['2-ACSR-B-6X1' '2-ACSR-B-6X1']
New Line.258904159 Phases= 1 Bus1=258904154.3     Bus2=258904161.3     Length=70.60  units=m  Spacing=VERTICAL-1-PH-60-1PH wires=['2-ACSR-B-6X1' '1/0-ACSR-B-6X1']
...

! Add node downstream of Regulator
New Line.259355408 Phases= 3 Bus1=COMMONWEALTH_RET_01311205_reg.1.2.3 Bus2=259355404.1.2.3 Length=76.44  units=m  Spacing=8'-ARM-STANDARD-3PH wires=['556-AAC-B-19' '556-AAC-B-19' '556-AAC-B-19' '556-AAC-B-19']

New Line.263534343 Bus1=263534340.1.2.3 Bus2=260762267.1.2.3 LineCode=2-AL-HMWPECN-15KV Phases= 3 Length=104.90 units=m enable=yes
New Line.258903876 Phases= 3 Bus1=258903873.1.2.3 Bus2=258903878.1.2.3 Length=46.24  units=m  Spacing=8'-ARM-NON-CENTER-POST-3PH wires=['336-AAC-B-19' '336-AAC-B-19' '336-AAC-B-19' '1/0-ACSR-B-6X1']
New Line.264381920 Phases= 3 Bus1=264381917.1.2.3 Bus2=258903807.1.2.3 Length=57.75  units=m  Spacing=8'-ARM-NON-CENTER-POST-3PH wires=['336-AAC-B-19' '336-AAC-B-19' '336-AAC-B-19' '1/0-ACSR-B-6X1']
New Line.699645957 Phases= 1 Bus1=699645954.1     Bus2=258904533.1     Length=51.17  units=m  Spacing=VERTICAL-1-PH-60-1PH wires=['2-ACSR-B-6X1' '1/0-ACSR-B-6X1']
New Line.263533230 Bus1=258904747.1.2.3 Bus2=263533232.1.2.3 LineCode=1/0-AL-HMWPECN-15KV Phases= 3 Length=1.53   units=m enable=yes
New Line.258907995 Phases= 1 Bus1=258907992.2     Bus2=258907997.2     Length=49.58  units=m  Spacing=VERTICAL-1-PH-60-1PH wires=['4-ACSR-B-6X1' '2-CU-B-7']
New Line.258904765 Phases= 1 Bus1=258904762.2     Bus2=258904767.2     Length=100.40 units=m  Spacing=VERTICAL-1-PH-60-1PH wires=['2-ACSR-B-6X1' '2-CU-B-7']
New Line.263533226 Phases= 2 Bus1=263533223.1.2   Bus2=258904725.1.2   Length=69.81  units=m  Spacing=8'-ARM-STANDARD-2PH wires=['2-ACSR-B-6X1' '2-ACSR-B-6X1' '1/0-ACSR-B-6X1']
New Line.258908477 Phases= 3 Bus1=258908474.1.2.3 Bus2=258908479.1.2.3 Length=30.27  units=m  Spacing=8'-ARM-NON-CENTER-POST-3PH wires=['1/0-ACSR-WP-6X1' '1/0-ACSR-WP-6X1' '1/0-ACSR-WP-6X1' '1/0-ACSR-B-6X1']
New Line.263530732 Phases= 3 Bus1=263530729.1.2.3 Bus2=258896633.1.2.3 Length=32.09  units=m  Spacing=8'-ARM-STANDARD-3PH wires=['2-ACSR-B-6X1' '2-ACSR-B-6X1' '2-ACSR-B-6X1' '1/0-ACSR-B-6X1']
New Line.263534401 Bus1=258908457.1.2.3 Bus2=263534403.1.2.3 LineCode=1/0-AL-HMWPECN-15KV Phases= 3 Length=1.52   units=m enable=yes
New Line.258896645 Phases= 3 Bus1=258896640.1.2.3 Bus2=258896647.1.2.3 Length=8.04   units=m  Spacing=8'-ARM-NON-CENTER-POST-3PH wires=['336-AAC-B-19' '336-AAC-B-19' '336-AAC-B-19' '1/0-ACSR-B-6X1']
New Line.699624834 Phases= 3 Bus1=258903975.1.2.3 Bus2=699624832.1.2.3 Length=42.91  units=m  Spacing=8'-ARM-NON-CENTER-POST-3PH wires=['2-ACSR-B-6X1' '2-ACSR-B-6X1' '2-ACSR-B-6X1' '1/0-ACSR-B-6X1']
New Line.263532996 Bus1=258903945.2     Bus2=263532998.2     LineCode=1/0-AL-HMWPECN-15KV Phases= 1 Length=1.52   units=m enable=yes
New Line.258903886 Phases= 3 Bus1=258903883.1.2.3 Bus2=258903888.1.2.3 Length=39.54  units=m  Spacing=8'-ARM-NON-CENTER-POST-3PH wires=['2-ACSR-B-6X1' '2-ACSR-B-6X1' '2-ACSR-B-6X1' '1/0-ACSR-B-6X1']
New Line.263534306 Phases= 1 Bus1=263534303.2     Bus2=258907881.2     Length=100.10 units=m  Spacing=VERTICAL-1-PH-60-1PH wires=['2-ACSR-B-6X1' '6-CU-WP-7']
New Line.399146169 Phases= 1 Bus1=399146165.2     Bus2=258908335.2     Length=85.49  units=m  Spacing=VERTICAL-1-PH-60-1PH wires=['4-CU-WP-7' '2-CU-WP-7']
New Line.263879210 Bus1=258908462.3     Bus2=263879212.3     LineCode=1/0-AL-TRXLPELCJ-15KV Phases= 1 Length=1.53   units=m enable=yes
New Line.259148828 Phases= 3 Bus1=258903795.1.2.3 Bus2=258903806.1.2.3 Length=63.37  units=m  Spacing=8'-ARM-NON-CENTER-POST-3PH wires=['336-AAC-B-19' '336-AAC-B-19' '336-AAC-B-19' '1/0-ACSR-B-6X1']
New Line.699645766 Phases= 3 Bus1=699645763.1.2.3 Bus2=258904620.1.2.3 Length=45.20  units=m  Spacing=8'-ARM-NON-CENTER-POST-3PH wires=['2-ACSR-B-6X1' '2-ACSR-B-6X1' '2-ACSR-B-6X1' '2-ACSR-B-6X1']
New Line.637684625 Phases= 1 Bus1=258907834.2     Bus2=637684623.2     Length=29.67  units=m  Spacing=VERTICAL-1-PH-60-1PH wires=['2-ACSR-B-6X1' '2-CU-B-7']
New Line.264281558 Bus1=260760205.1     Bus2=264281556.1     LineCode=1/0-AL-HMWPECN-15KV Phases= 1 Length=118.40 units=m enable=no
New Line.699603807 Phases= 3 Bus1=263532863.1.2.3 Bus2=699603805.1.2.3 Length=7.56   units=m  Spacing=8'-ARM-NON-CENTER-POST-3PH wires=['1/0-ACSR-B-6X1' '1/0-ACSR-B-6X1' '1/0-ACSR-B-6X1' '1/0-ACSR-B-6X1']
New Line.258896413 Phases= 3 Bus1=258896410.1.2.3 Bus2=258896415.1.2.3 Length=26.54  units=m  Spacing=8'-ARM-NON-CENTER-POST-3PH wires=['336-ACSR-WP-18X1' '336-ACSR-WP-18X1' '336-ACSR-WP-18X1' '336-ACSR-B-18X1']
New Line.258904013 Phases= 1 Bus1=258904010.2     Bus2=258904015.2     Length=10.42  units=m  Spacing=VERTICAL-1-PH-60-1PH wires=['2-ACSR-B-6X1' '1/0-ACSR-B-6X1']
New Line.399146163 Phases= 1 Bus1=258908330.2     Bus2=399146165.2     Length=1.51   units=m  Spacing=VERTICAL-1-PH-60-1PH wires=['4-CU-WP-7' '2-CU-WP-7']
New Line.699646023 Phases= 1 Bus1=258904563.1     Bus2=699646021.1     Length=29.29  units=m  Spacing=VERTICAL-1-PH-60-1PH wires=['1/0-ACSR-WP-6X1' '1/0-ACSR-B-6X1']
New Line.264308694 Bus1=260761253.3     Bus2=260761258.3     LineCode=1/0-AL-TRXLPELCJ-15KV Phases= 1 Length=30.14  units=m enable=no
New Line.258908438 Phases= 3 Bus1=258896333.1.2.3 Bus2=258908440.1.2.3 Length=17.21  units=m  Spacing=8'-ARM-STANDARD-3PH wires=['1/0-ACSR-B-6X1' '1/0-ACSR-B-6X1' '1/0-ACSR-B-6X1' '1/0-ACSR-B-6X1']
New Line.627235905 Phases= 3 Bus1=258896583.1.2.3 Bus2=258896592.1.2.3 Length=46.47  units=m  Spacing=8'-ARM-STANDARD-3PH wires=['336-AAC-B-19' '336-AAC-B-19' '336-AAC-B-19' '1/0-ACSR-B-6X1']
New Line.258904476 Phases= 3 Bus1=258904471.1.2.3 Bus2=258904478.1.2.3 Length=29.00  units=m  Spacing=8'-ARM-NON-CENTER-POST-3PH wires=['1/0-ACSR-B-6X1' '1/0-ACSR-B-6X1' '1/0-ACSR-B-6X1' '1/0-ACSR-B-6X1']
New Line.258904348 Phases= 3 Bus1=258904343.1.2.3 Bus2=258904350.1.2.3 Length=30.68  units=m  Spacing=8'-ARM-NON-CENTER-POST-3PH wires=['2-ACSR-B-6X1' '2-ACSR-B-6X1' '2-ACSR-B-6X1' '1/0-ACSR-B-6X1']
New Line.716733229 Phases= 3 Bus1=258903858.1.2.3 Bus2=716733231.1.2.3 Length=1.53   units=m  Spacing=8'-ARM-NON-CENTER-POST-3PH wires=['2-ACSR-B-6X1' '2-ACSR-B-6X1' '2-ACSR-B-6X1' '1/0-ACSR-B-6X1']
New Line.258908358 Phases= 1 Bus1=258908355.1     Bus2=258908360.1     Length=78.24  units=m  Spacing=VERTICAL-1-PH-60-1PH wires=['4-CU-WP-7' '4-CU-WP-7']
New Line.258896508 Phases= 3 Bus1=258896505.1.2.3 Bus2=258896510.1.2.3 Length=126.10 units=m  Spacing=8'-ARM-STANDARD-3PH wires=['336-AAC-B-19' '336-AAC-B-19' '336-AAC-B-19' '1/0-ACSR-B-6X1']
New Line.699624909 Phases= 1 Bus1=258904191.2     Bus2=699624907.2     Length=5.01   units=m  Spacing=VERTICAL-1-PH-60-1PH wires=['4-CU-B-7' '2-CU-B-7']
New Line.263530736 Phases= 1 Bus1=258896640.3     Bus2=263530738.3     Length=1.52   units=m  Spacing=NEUTRAL-ON-ARM-1PH wires=['6-CU-B-S' '6-CU-B-S']
New Line.258904353 Phases= 3 Bus1=258904350.1.2.3 Bus2=258904355.1.2.3 Length=18.74  units=m  Spacing=8'-ARM-NON-CENTER-POST-3PH wires=['2-ACSR-B-6X1' '2-ACSR-B-6X1' '2-ACSR-B-6X1' '1/0-ACSR-B-6X1']
New Line.699644088 Phases= 1 Bus1=699644085.2     Bus2=258904318.2     Length=38.40  units=m  Spacing=VERTICAL-1-PH-60-1PH wires=['2-ACSR-B-6X1' '1/0-ACSR-B-6X1']
New Line.716733190 Phases= 3 Bus1=258903873.1.2.3 Bus2=716733192.1.2.3 Length=1.53   units=m  Spacing=8'-ARM-NON-CENTER-POST-3PH wires=['336-AAC-B-19' '336-AAC-B-19' '336-AAC-B-19' '2-ACSR-B-6X1']
New Line.258896559 Phases= 3 Bus1=258896534.1.2.3 Bus2=258896561.1.2.3 Length=23.09  units=m  Spacing=8'-ARM-STANDARD-3PH wires=['336-AAC-B-19' '336-AAC-B-19' '336-AAC-B-19' '1/0-ACSR-B-6X1']
New Line.699624374 Phases= 1 Bus1=699624371.2     Bus2=258904110.2     Length=41.51  units=m  Spacing=VERTICAL-1-PH-60-1PH wires=['2-ACSR-B-6X1' '1/0-ACSR-B-6X1']
New Line.261180494 Bus1=261180495.2     Bus2=261180496.2     LineCode=1/0-AL-TRXLPELCJ-15KV Phases= 1 Length=63.45  units=m enable=yes
New Line.258908138 Phases= 3 Bus1=258908133.1.2.3 Bus2=258908140.1.2.3 Length=52.44  units=m  Spacing=8'-ARM-NON-CENTER-POST-3PH wires=['4-ACSR-B-6X1' '4-ACSR-B-6X1' '4-ACSR-B-6X1' '2-CU-B-7']
New Line.458944741 Phases= 3 Bus1=258896395.1.2.3 Bus2=458944739.1.2.3 Length=29.75  units=m  Spacing=8'-ARM-NON-CENTER-POST-3PH wires=['336-ACSR-WP-18X1' '336-ACSR-WP-18X1' '336-ACSR-WP-18X1' '336-ACSR-B-18X1']
New Line.699625126 Phases= 1 Bus1=699625123.1     Bus2=258904243.1     Length=61.86  units=m  Spacing=VERTICAL-1-PH-60-1PH wires=['4-ACSR-B-6X1' '2-CU-B-7']
New Line.258904449 Phases= 1 Bus1=258904446.1     Bus2=258904451.1     Length=22.81  units=m  Spacing=VERTICAL-1-PH-60-1PH wires=['2-ACSR-B-6X1' '1/0-ACSR-B-6X1']
New Line.274925126 Phases= 3 Bus1=263682376.1.2.3 Bus2=274925125.1.2.3 Length=1.00   units=m  Spacing=8'-ARM-NON-CENTER-POST-3PH wires=['2-ACSR-B-6X1' '2-ACSR-B-6X1' '2-ACSR-B-6X1' '1/0-ACSR-B-6X1']
New Line.617632389 Phases= 3 Bus1=617632386.1.2.3 Bus2=258904508.1.2.3 Length=43.51  units=m  Spacing=8'-ARM-NON-CENTER-POST-3PH wires=['1/0-ACSR-WP-6X1' '1/0-ACSR-WP-6X1' '1/0-ACSR-WP-6X1' '1/0-ACSR-B-6X1']
New Line.258904745 Phases= 3 Bus1=258903800.1.2.3 Bus2=258904747.1.2.3 Length=47.53  units=m  Spacing=8'-ARM-NON-CENTER-POST-3PH wires=['6-CU-B-S' '6-CU-B-S' '6-CU-B-S' '2-CU-B-7']
New Line.258908368 Phases= 1 Bus1=258908365.1     Bus2=258908370.1     Length=52.81  units=m  Spacing=VERTICAL-1-PH-60-1PH wires=['4-CU-WP-7' '4-CU-WP-7']
New Line.263530696 Phases= 3 Bus1=263530693.1.2.3 Bus2=258896538.1.2.3 Length=28.89  units=m  Spacing=8'-ARM-STANDARD-3PH wires=['2-ACSR-B-6X1' '2-ACSR-B-6X1' '2-ACSR-B-6X1' '1/0-ACSR-B-6X1']
New Line.258908263 Phases= 1 Bus1=258908220.2     Bus2=258908265.2     Length=22.54  units=m  Spacing=VERTICAL-1-PH-60-1PH wires=['4-CU-WP-7' '2-CU-WP-7']
New Line.699624124 Phases= 1 Bus1=699624121.2     Bus2=258904040.2     Length=39.21  units=m  Spacing=VERTICAL-1-PH-60-1PH wires=['2-ACSR-B-6X1' '1/0-ACSR-B-6X1']
New Line.699625150 Phases= 1 Bus1=258904248.1     Bus2=699625148.1     Length=48.21  units=m  Spacing=VERTICAL-1-PH-60-1PH wires=['4-ACSR-B-6X1' '2-CU-B-7']
New Line.263533086 Phases= 1 Bus1=258904367.1     Bus2=263533088.1     Length=1.52   units=m  Spacing=VERTICAL-1-PH-60-1PH wires=['2-ACSR-B-6X1' '1/0-ACSR-B-6X1']
New Line.263997294 Bus1=258908474.3     Bus2=263997296.3     LineCode=1/0-AL-TRXLPELCJ-15KV Phases= 1 Length=1.53   units=m enable=yes
New Line.264256886 Bus1=260762272.1.2.3 Bus2=260762277.1.2.3 LineCode=1/0-AL-HMWPECN-15KV Phases= 3 Length=146.40 units=m enable=no
New Line.263534356 Phases= 3 Bus1=258908181.1.2.3 Bus2=263534358.1.2.3 Length=1.53   units=m  Spacing=8'-ARM-NON-CENTER-POST-3PH wires=['336-ACSR-WP-18X1' '336-ACSR-WP-18X1' '336-ACSR-WP-18X1' '336-ACSR-B-18X1']
New Line.699625644 Phases= 3 Bus1=258904221.1.2.3 Bus2=699625642.1.2.3 Length=47.60  units=m  Spacing=8'-ARM-NON-CENTER-POST-3PH wires=['2-ACSR-B-6X1' '2-ACSR-B-6X1' '2-ACSR-B-6X1' '1/0-ACSR-B-6X1']
New Line.258896393 Phases= 3 Bus1=258896390.1.2.3 Bus2=258896395.1.2.3 Length=69.83  units=m  Spacing=8'-ARM-NON-CENTER-POST-3PH wires=['336-ACSR-WP-18X1' '336-ACSR-WP-18X1' '336-ACSR-WP-18X1' '336-ACSR-B-18X1']
New Line.258896452 Phases= 3 Bus1=258896449.1.2.3 Bus2=258896454.1.2.3 Length=97.07  units=m  Spacing=8'-ARM-NON-CENTER-POST-3PH wires=['336-ACSR-WP-18X1' '336-ACSR-WP-18X1' '336-ACSR-WP-18X1' '336-ACSR-B-18X1']
New Line.699625481 Phases= 3 Bus1=258904367.1.2.3 Bus2=699625479.1.2.3 Length=35.28  units=m  Spacing=8'-ARM-NON-CENTER-POST-3PH wires=['2-ACSR-B-6X1' '2-ACSR-B-6X1' '2-ACSR-B-6X1' '1/0-ACSR-B-6X1']
New Line.259184262 Phases= 3 Bus1=258896628.1.2.3 Bus2=258896639.1.2.3 Length=17.85  units=m  Spacing=8'-ARM-NON-CENTER-POST-3PH wires=['336-AAC-B-19' '336-AAC-B-19' '336-AAC-B-19' '1/0-ACSR-B-6X1']
New Line.263532893 Phases= 1 Bus1=263532890.1     Bus2=258904563.1     Length=39.33  units=m  Spacing=VERTICAL-1-PH-60-1PH wires=['1/0-ACSR-WP-6X1' '1/0-ACSR-B-6X1']
New Line.263533163 Phases= 1 Bus1=263533160.3     Bus2=258904615.3     Length=22.51  units=m  Spacing=VERTICAL-1-PH-60-1PH wires=['2-ACSR-B-6X1' '1/0-ACSR-B-6X1']
New Line.699625680 Phases= 3 Bus1=258904211.1.2.3 Bus2=699625678.1.2.3 Length=22.60  units=m  Spacing=8'-ARM-NON-CENTER-POST-3PH wires=['2-CU-B-7' '4-CU-B-7' '4-CU-B-7' '2-CU-B-7']
New Line.258896299 Phases= 3 Bus1=258896296.1.2.3 Bus2=258896301.1.2.3 Length=122.50 units=m  Spacing=8'-ARM-NON-CENTER-POST-3PH wires=['336-ACSR-WP-18X1' '336-ACSR-WP-18X1' '336-ACSR-WP-18X1' '336-ACSR-B-18X1']
New Line.258908238 Phases= 3 Bus1=258908235.1.2.3 Bus2=258908240.1.2.3 Length=10.90  units=m  Spacing=8'-ARM-NON-CENTER-POST-3PH wires=['4-CU-WP-7' '4-CU-WP-7' '4-CU-WP-7' '1/0-CU-WP-7']
New Line.627235800 Phases= 3 Bus1=627235797.1.2.3 Bus2=627235688.1.2.3 Length=6.11   units=m  Spacing=8'-ARM-STANDARD-3PH wires=['336-AAC-B-19' '336-AAC-B-19' '336-AAC-B-19' '1/0-ACSR-B-6X1']
New Line.699646166 Phases= 3 Bus1=699646163.1.2.3 Bus2=258904483.1.2.3 Length=33.95  units=m  Spacing=8'-ARM-NON-CENTER-POST-3PH wires=['1/0-ACSR-WP-6X1' '1/0-ACSR-WP-6X1' '1/0-ACSR-WP-6X1' '1/0-ACSR-B-6X1']
New Line.615970337 Phases= 3 Bus1=615970333.1.2.3 Bus2=258907787.1.2.3 Length=53.03  units=m  Spacing=8'-ARM-NON-CENTER-POST-3PH wires=['6-CU-B-S' '6-CU-B-S' '6-CU-B-S' '2-CU-B-7']
New Line.258904246 Phases= 1 Bus1=258904243.1     Bus2=258904248.1     Length=40.31  units=m  Spacing=VERTICAL-1-PH-60-1PH wires=['4-ACSR-B-6X1' '2-CU-B-7']
New Line.699623268 Phases= 1 Bus1=258904789.2     Bus2=699623266.2     Length=51.08  units=m  Spacing=VERTICAL-1-PH-60-1PH wires=['2-ACSR-B-6X1' '1/0-ACSR-B-6X1']
New Line.258904459 Phases= 1 Bus1=258904406.1     Bus2=258904461.1     Length=46.95  units=m  Spacing=VERTICAL-1-PH-60-1PH wires=['2-ACSR-B-6X1' '1/0-ACSR-B-6X1']
New Line.699624175 Phases= 1 Bus1=699624172.2     Bus2=258904010.2     Length=22.42  units=m  Spacing=VERTICAL-1-PH-60-1PH wires=['2-ACSR-B-6X1' '1/0-ACSR-B-6X1']
New Line.263532857 Phases= 3 Bus1=263532854.1.2.3 Bus2=258904718.1.2.3 Length=60.39  units=m  Spacing=8'-ARM-NON-CENTER-POST-3PH wires=['2-ACSR-B-6X1' '2-ACSR-B-6X1' '2-ACSR-B-6X1' '1/0-ACSR-B-6X1']
New Line.258908455 Phases= 3 Bus1=258908452.1.2.3 Bus2=258908457.1.2.3 Length=13.54  units=m  Spacing=8'-ARM-STANDARD-3PH wires=['1/0-ACSR-B-6X1' '1/0-ACSR-B-6X1' '1/0-ACSR-B-6X1' '1/0-ACSR-B-6X1']
New Line.264256760 Bus1=260761283.3     Bus2=260761288.3     LineCode=1/0-AL-HMWPECN-15KV Phases= 1 Length=73.28  units=m enable=no
New Line.263974095 Phases= 1 Bus1=258908044.3     Bus2=263974097.3     Length=1.53   units=m  Spacing=VERTICAL-1-PH-104-1PH wires=['1/0-ACSR-B-6X1' '1/0-ACSR-B-6X1']
New Line.258907980 Phases= 1 Bus1=258907977.2     Bus2=258907982.2     Length=88.82  units=m  Spacing=VERTICAL-1-PH-60-1PH wires=['4-ACSR-B-6X1' '2-CU-B-7']
New Line.699625174 Phases= 1 Bus1=699625159.1     Bus2=699625172.1     Length=40.85  units=m  Spacing=VERTICAL-1-PH-60-1PH wires=['4-ACSR-B-6X1' '2-CU-B-7']
New Line.478673659 Phases= 3 Bus1=258908250.1.2.3 Bus2=258908260.1.2.3 Length=51.27  units=m  Spacing=8'-ARM-NON-CENTER-POST-3PH wires=['4-CU-WP-7' '4-CU-WP-7' '4-CU-WP-7' '2-CU-WP-7']
New Line.260761266 Bus1=260761263.3     Bus2=260761268.3     LineCode=1/0-AL-TRXLPELCJ-15KV Phases= 1 Length=22.59  units=m enable=yes
New Line.699603885 Phases= 3 Bus1=699603882.1.2.3 Bus2=258903863.1.2.3 Length=33.25  units=m  Spacing=8'-ARM-NON-CENTER-POST-3PH wires=['336-AAC-B-19' '336-AAC-B-19' '336-AAC-B-19' '1/0-ACSR-B-6X1']
New Line.699625097 Phases= 1 Bus1=699625094.1     Bus2=258904258.1     Length=27.95  units=m  Spacing=VERTICAL-1-PH-60-1PH wires=['4-ACSR-B-6X1' '2-CU-B-7']
New Line.263530750 Phases= 3 Bus1=263530747.1.2.3 Bus2=258907869.1.2.3 Length=29.27  units=m  Spacing=8'-ARM-STANDARD-3PH wires=['2-ACSR-B-6X1' '2-ACSR-B-6X1' '2-ACSR-B-6X1' '2-ACSR-B-6X1']
New Line.258908398 Phases= 1 Bus1=258908395.1     Bus2=258908400.1     Length=29.69  units=m  Spacing=VERTICAL-1-PH-60-1PH wires=['4-CU-WP-7' '2-CU-WP-7']
New Line.258896435 Phases= 3 Bus1=258896432.1.2.3 Bus2=258896437.1.2.3 Length=20.49  units=m  Spacing=8'-ARM-NON-CENTER-POST-3PH wires=['336-ACSR-WP-18X1' '336-ACSR-WP-18X1' '336-ACSR-WP-18X1' '336-ACSR-B-18X1']
New Line.263533077 Bus1=258904350.3     Bus2=263533079.3     LineCode=1/0-AL-HMWPECN-15KV Phases= 1 Length=1.53   units=m enable=yes
New Line.258908487 Phases= 1 Bus1=258908484.2     Bus2=258908489.2     Length=41.69  units=m  Spacing=VERTICAL-1-PH-60-1PH wires=['2-ACSR-B-6X1' '1/0-ACSR-B-6X1']
New Line.258904750 Phases= 3 Bus1=258904747.1.2.3 Bus2=258904752.1.2.3 Length=32.47  units=m  Spacing=8'-ARM-NON-CENTER-POST-3PH wires=['6-CU-B-S' '6-CU-B-S' '6-CU-B-S' '2-CU-B-7']
New Line.264256634 Bus1=263530711.1.2.3 Bus2=260760193.1.2.3 LineCode=350-AL-XLPEDWJ-15KV Phases= 3 Length=63.34  units=m enable=no
New Line.699645828 Phases= 1 Bus1=699645825.3     Bus2=258904651.3     Length=56.52  units=m  Spacing=VERTICAL-1-PH-60-1PH wires=['4-CU-B-7' '2-CU-B-7']
New Line.699645908 Phases= 1 Bus1=699645905.1     Bus2=258904528.1     Length=28.80  units=m  Spacing=VERTICAL-1-PH-60-1PH wires=['2-ACSR-B-6X1' '1/0-ACSR-B-6X1']
New Line.699625645 Phases= 3 Bus1=699625642.1.2.3 Bus2=258904343.1.2.3 Length=26.13  units=m  Spacing=8'-ARM-NON-CENTER-POST-3PH wires=['2-ACSR-B-6X1' '2-ACSR-B-6X1' '2-ACSR-B-6X1' '1/0-ACSR-B-6X1']
New Line.699624123 Phases= 1 Bus1=699624110.2     Bus2=699624121.2     Length=23.15  units=m  Spacing=VERTICAL-1-PH-60-1PH wires=['2-ACSR-B-6X1' '1/0-ACSR-B-6X1']
New Line.258904711 Phases= 1 Bus1=258904708.3     Bus2=258904713.3     Length=27.94  units=m  Spacing=VERTICAL-1-PH-60-1PH wires=['2-ACSR-B-6X1' '2-ACSR-B-6X1']
New Line.258908201 Phases= 3 Bus1=258908198.1.2.3 Bus2=258908203.1.2.3 Length=30.03  units=m  Spacing=8'-ARM-NON-CENTER-POST-3PH wires=['4-CU-WP-7' '4-CU-WP-7' '4-CU-WP-7' '4-CU-WP-7']
New Line.466941338 Phases= 3 Bus1=466941334.1.2.3 Bus2=258896353.1.2.3 Length=40.04  units=m  Spacing=8'-ARM-NON-CENTER-POST-3PH wires=['336-ACSR-WP-18X1' '336-ACSR-WP-18X1' '336-ACSR-WP-18X1' '336-ACSR-B-18X1']
New Line.258903819 Phases= 3 Bus1=258903814.1.2.3 Bus2=258903821.1.2.3 Length=69.68  units=m  Spacing=8'-ARM-NON-CENTER-POST-3PH wires=['336-AAC-B-19' '336-AAC-B-19' '336-AAC-B-19' '1/0-ACSR-B-6X1']
New Line.263534329 Phases= 3 Bus1=258907950.1.2.3 Bus2=263534331.1.2.3 Length=1.52   units=m  Spacing=8'-ARM-NON-CENTER-POST-3PH wires=['4-ACSR-B-6X1' '4-ACSR-B-6X1' '4-ACSR-B-6X1' '2-CU-B-7']
New Line.258896527 Phases= 3 Bus1=258896522.1.2.3 Bus2=258896529.1.2.3 Length=35.03  units=m  Spacing=8'-ARM-STANDARD-3PH wires=['336-AAC-B-19' '336-AAC-B-19' '336-AAC-B-19' '1/0-ACSR-B-6X1']
New Line.258908020 Phases= 1 Bus1=258908017.2     Bus2=258908022.2     Length=44.46  units=m  Spacing=VERTICAL-1-PH-60-1PH wires=['2-ACSR-B-6X1' '2-CU-B-7']
New Line.699624163 Phases= 1 Bus1=263533025.2     Bus2=699624161.2     Length=77.81  units=m  Spacing=VERTICAL-1-PH-60-1PH wires=['2-ACSR-B-6X1' '1/0-ACSR-B-6X1']
New Line.258908148 Phases= 1 Bus1=258908145.2     Bus2=258908150.2     Length=185.80 units=m  Spacing=VERTICAL-1-PH-60-1PH wires=['4-ACSR-B-6X1' '2-CU-B-7']
New Line.263534352 Phases= 1 Bus1=263534349.1     Bus2=258908071.1     Length=64.53  units=m  Spacing=VERTICAL-1-PH-60-1PH wires=['4-ACSR-B-6X1' '2-CU-B-7']
New Line.258907723 Phases= 2 Bus1=258907718.2.3   Bus2=258907725.2.3   Length=94.70  units=m  Spacing=8'-ARM-STANDARD-2PH wires=['6-CU-B-S' '6-CU-B-S' '6-CU-B-S']
New Line.258908119 Phases= 3 Bus1=258908116.1.2.3 Bus2=258908121.1.2.3 Length=19.85  units=m  Spacing=8'-ARM-NON-CENTER-POST-3PH wires=['4-ACSR-B-6X1' '4-ACSR-B-6X1' '4-ACSR-B-6X1' '2-CU-B-7']
New Line.258904419 Phases= 1 Bus1=258904416.1     Bus2=258904421.1     Length=37.29  units=m  Spacing=VERTICAL-1-PH-60-1PH wires=['2-ACSR-B-6X1' '1/0-ACSR-B-6X1']
New Line.264003737 Phases= 1 Bus1=258903919.3     Bus2=264003739.3     Length=1.53   units=m  Spacing=VERTICAL-1-PH-104-1PH wires=['1/0-ACSR-B-6X1' '1/0-ACSR-B-6X1']
New Line.261302044 Bus1=261302045.2     Bus2=261245654.2     LineCode=1/0-AL-TRXLPELCJ-15KV Phases= 1 Length=112.80 units=m enable=yes
New Line.263534325 Phases= 3 Bus1=263534322.1.2.3 Bus2=258908116.1.2.3 Length=19.45  units=m  Spacing=8'-ARM-NON-CENTER-POST-3PH wires=['4-ACSR-B-6X1' '4-ACSR-B-6X1' '4-ACSR-B-6X1' '2-CU-B-7']
New Line.258903788 Phases= 3 Bus1=258903785.1.2.3 Bus2=258903790.1.2.3 Length=73.17  units=m  Spacing=8'-ARM-NON-CENTER-POST-3PH wires=['336-AAC-B-19' '336-AAC-B-19' '336-AAC-B-19' '1/0-ACSR-B-6X1']
New Line.263532848 Phases= 1 Bus1=263532845.3     Bus2=258907693.3     Length=48.15  units=m  Spacing=VERTICAL-1-PH-60-1PH wires=['6-CU-WP-7' '6-CU-WP-7']
New Line.258896626 Phases= 3 Bus1=258896623.1.2.3 Bus2=258896628.1.2.3 Length=34.92  units=m  Spacing=8'-ARM-STANDARD-3PH wires=['336-AAC-B-19' '336-AAC-B-19' '336-AAC-B-19' '1/0-ACSR-B-6X1']
New Line.263534338 Bus1=258908056.1.2.3 Bus2=263534340.1.2.3 LineCode=2-AL-HMWPECN-15KV Phases= 3 Length=1.52   units=m enable=yes
New Line.263530678 Phases= 1 Bus1=263530675.3     Bus2=258908415.3     Length=75.78  units=m  Spacing=VERTICAL-1-PH-60-1PH wires=['4-CU-WP-7' '2-CU-WP-7']
New Line.258896371 Phases= 3 Bus1=258896368.1.2.3 Bus2=258896373.1.2.3 Length=14.84  units=m  Spacing=8'-ARM-NON-CENTER-POST-3PH wires=['336-ACSR-WP-18X1' '336-ACSR-WP-18X1' '336-ACSR-WP-18X1' '336-ACSR-B-18X1']
New Line.263533023 Phases= 1 Bus1=258904000.2     Bus2=263533025.2     Length=1.52   units=m  Spacing=VERTICAL-1-PH-60-1PH wires=['2-ACSR-B-6X1' '1/0-ACSR-B-6X1']
New Line.258907686 Phases= 1 Bus1=258907683.2     Bus2=258907688.2     Length=42.93  units=m  Spacing=VERTICAL-1-PH-60-1PH wires=['2-ACSR-B-6X1' '1/0-ACSR-B-6X1']
New Line.615970331 Phases= 3 Bus1=258907718.1.2.3 Bus2=615970333.1.2.3 Length=1.51   units=m  Spacing=8'-ARM-NON-CENTER-POST-3PH wires=['6-CU-B-S' '6-CU-B-S' '6-CU-B-S' '2-CU-B-7']
New Line.263991396 Phases= 1 Bus1=263991393.3     Bus2=258904703.3     Length=69.88  units=m  Spacing=VERTICAL-1-PH-60-1PH wires=['2-ACSR-B-6X1' '2-ACSR-B-6X1']
New Line.263532902 Phases= 1 Bus1=263532899.1     Bus2=258904527.1     Length=78.09  units=m  Spacing=VERTICAL-1-PH-60-1PH wires=['2-ACSR-B-6X1' '1/0-ACSR-B-6X1']
New Line.699646123 Phases= 3 Bus1=258904518.1.2.3 Bus2=699646121.1.2.3 Length=27.45  units=m  Spacing=8'-ARM-NON-CENTER-POST-3PH wires=['1/0-ACSR-WP-6X1' '1/0-ACSR-WP-6X1' '1/0-ACSR-WP-6X1' '2-CU-B-7']
New Line.263534297 Phases= 2 Bus1=263534294.1.2   Bus2=258907824.1.2   Length=95.95  units=m  Spacing=8'-ARM-STANDARD-2PH wires=['4-CU-B-7' '4-CU-B-7' '2-CU-B-7']
New Line.259157436 Phases= 1 Bus1=258904772.2     Bus2=258904783.2     Length=47.68  units=m  Spacing=VERTICAL-1-PH-60-1PH wires=['2-ACSR-B-6X1' '1/0-ACSR-B-6X1']
New Line.258896326 Phases= 3 Bus1=258896321.1.2.3 Bus2=258896328.1.2.3 Length=186.60 units=m  Spacing=8'-ARM-NON-CENTER-POST-3PH wires=['336-ACSR-WP-18X1' '336-ACSR-WP-18X1' '336-ACSR-WP-18X1' '336-ACSR-B-18X1']
New Line.258907770 Phases= 1 Bus1=258907757.2     Bus2=258907772.2     Length=68.59  units=m  Spacing=VERTICAL-1-PH-60-1PH wires=['4-ACSR-B-6X1' '1/0-ACSR-B-6X1']
New Line.258907862 Phases= 1 Bus1=258907859.1     Bus2=258907864.1     Length=39.47  units=m  Spacing=VERTICAL-1-PH-60-1PH wires=['4-CU-B-7' '2-CU-B-7']
New Line.258907963 Phases= 3 Bus1=258907960.1.2.3 Bus2=258907965.1.2.3 Length=23.02  units=m  Spacing=8'-ARM-NON-CENTER-POST-3PH wires=['4-ACSR-B-6X1' '4-ACSR-B-6X1' '4-ACSR-B-6X1' '2-CU-B-7']
New Line.263530718 Bus1=258896556.1.2.3 Bus2=263530720.1.2.3 LineCode=350-AL-XLPEDWJ-15KV Phases= 3 Length=1.53   units=m enable=yes
New Line.263534347 Phases= 1 Bus1=258907940.1     Bus2=263534349.1     Length=1.52   units=m  Spacing=VERTICAL-1-PH-60-1PH wires=['4-ACSR-B-6X1' '2-CU-B-7']
New Line.627235807 Phases= 3 Bus1=627235805.1.2.3 Bus2=258896618.1.2.3 Length=30.33  units=m  Spacing=8'-ARM-STANDARD-3PH wires=['336-AAC-B-19' '336-AAC-B-19' '336-AAC-B-19' '1/0-ACSR-B-6X1']
New Line.260761166 Bus1=260761163.2     Bus2=260761168.2     LineCode=2-AL-HMWPECN-15KV Phases= 1 Length=12.00  units=m enable=yes
New Line.263533082 Bus1=263533079.3     Bus2=260761148.3     LineCode=1/0-AL-HMWPECN-15KV Phases= 1 Length=43.15  units=m enable=yes
New Line.258904536 Phases= 1 Bus1=258904533.1     Bus2=258904538.1     Length=73.34  units=m  Spacing=VERTICAL-1-PH-60-1PH wires=['2-ACSR-B-6X1' '2-ACSR-B-6X1']
New Line.258896571 Phases= 3 Bus1=258896566.1.2.3 Bus2=258896573.1.2.3 Length=72.66  units=m  Spacing=8'-ARM-STANDARD-3PH wires=['336-AAC-B-19' '336-AAC-B-19' '336-AAC-B-19' '1/0-ACSR-B-6X1']
New Line.263682010 Phases= 3 Bus1=263682007.1.2.3 Bus2=258903995.1.2.3 Length=43.66  units=m  Spacing=8'-ARM-NON-CENTER-POST-3PH wires=['2-ACSR-B-6X1' '2-ACSR-B-6X1' '2-ACSR-B-6X1' '1/0-ACSR-B-6X1']
New Line.699624891 Phases= 1 Bus1=258904196.2     Bus2=699624889.2     Length=18.38  units=m  Spacing=VERTICAL-1-PH-60-1PH wires=['2-CU-B-7' '2-CU-B-7']
New Line.263681965 Phases= 1 Bus1=263681962.1     Bus2=258896459.1     Length=41.74  units=m  Spacing=VERTICAL-1-PH-60-1PH wires=['4-CU-WP-7' '4-CU-WP-7']
New Line.699623269 Phases= 1 Bus1=699623266.2     Bus2=258907663.2     Length=56.76  units=m  Spacing=VERTICAL-1-PH-60-1PH wires=['2-ACSR-B-6X1' '1/0-ACSR-B-6X1']
New Line.263533118 Bus1=263533115.3     Bus2=260761263.3     LineCode=1/0-AL-TRXLPELCJ-15KV Phases= 1 Length=19.47  units=m enable=yes
New Line.258908273 Phases= 1 Bus1=258908270.2     Bus2=258908275.2     Length=51.61  units=m  Spacing=VERTICAL-1-PH-60-1PH wires=['4-CU-WP-7' '2-CU-WP-7']
New Line.263533217 Bus1=263533214.1     Bus2=260761328.1     LineCode=1/0-AL-HMWPECN-15KV Phases= 1 Length=26.22  units=m enable=yes
New Line.258896503 Phases= 3 Bus1=258896486.1.2.3 Bus2=258896505.1.2.3 Length=20.60  units=m  Spacing=8'-ARM-STANDARD-3PH wires=['336-AAC-B-19' '336-AAC-B-19' '336-AAC-B-19' '1/0-ACSR-B-6X1']
New Line.699622946 Phases= 3 Bus1=258903915.1.2.3 Bus2=699622944.1.2.3 Length=22.78  units=m  Spacing=8'-ARM-NON-CENTER-POST-3PH wires=['336-AAC-B-19' '336-AAC-B-19' '336-AAC-B-19' '1/0-ACSR-B-6X1']
...